CN05_EXP_VOLTAGES.CSV
Bus, BasekV, Node1, Magnitude1, Angle1, pu1, Node2, Magnitude2, Angle2, pu2, Node3, Magnitude3, Angle3, pu3
"SCN_CN05_9528_CEI027", 13.8, 1,    7868.04,   -0.5,   0.98753, 2,    7868.04, -120.5,   0.98753, 3,    7868.04,  119.5,   0.98753
"SCN_CN05_9453_CEI027", 13.8, 1,    7866.26,   -0.5,    0.9873, 2,    7866.26, -120.5,    0.9873, 3,    7866.26,  119.5,    0.9873
"SCN_CN05_9452_CEI027", 13.8, 1,    7864.48,   -0.5,   0.98708, 2,    7864.48, -120.5,   0.98708, 3,    7864.48,  119.5,   0.98708
"SCN_CN05_9451_CEI027", 13.8, 1,    7862.73,   -0.5,   0.98686, 2,    7862.73, -120.5,   0.98686, 3,    7862.73,  119.5,   0.98686
"SCN_CN05_9356_CEI027", 13.8, 1,    7860.98,   -0.5,   0.98664, 2,    7860.98, -120.5,   0.98664, 3,    7860.98,  119.5,   0.98664
"SCN_CN05_9355_CEI027", 13.8, 1,    7859.23,   -0.5,   0.98642, 2,    7859.23, -120.5,   0.98642, 3,    7859.23,  119.5,   0.98642
"SCN_CN05_9354_CEI027", 13.8, 1,    7857.49,   -0.5,    0.9862, 2,    7857.49, -120.5,    0.9862, 3,    7857.49,  119.5,    0.9862
"SCN_CN05_9338_CEI027", 13.8, 1,    7855.74,   -0.5,   0.98598, 2,    7855.74, -120.5,   0.98598, 3,    7855.74,  119.5,   0.98598
"SCN_CN05_9337_CEI027", 13.8, 1,    7854.01,   -0.5,   0.98576, 2,    7854.01, -120.5,   0.98576, 3,    7854.01,  119.5,   0.98576
"SCN_CN05_9247_CEI027", 13.8, 1,    7852.28,   -0.5,   0.98555, 2,    7852.28, -120.5,   0.98555, 3,    7852.28,  119.5,   0.98555
"SCN_CN05_9246_CEI027", 13.8, 1,    7850.56,   -0.5,   0.98533, 2,    7850.56, -120.5,   0.98533, 3,    7850.56,  119.5,   0.98533
"SCN_CN05_9245_CEI027", 13.8, 1,    7848.83,   -0.5,   0.98511, 2,    7848.83, -120.5,   0.98511, 3,    7848.83,  119.5,   0.98511
"SCN_CN05_9229_CEI027", 13.8, 1,     7847.1,   -0.5,    0.9849, 2,     7847.1, -120.5,    0.9849, 3,     7847.1,  119.5,    0.9849
"SCN_CN05_9228_CEI027", 13.8, 1,     7845.4,   -0.5,   0.98468, 2,     7845.4, -120.5,   0.98468, 3,     7845.4,  119.5,   0.98468
"SCN_CN05_9227_CEI027", 13.8, 1,    7843.69,   -0.5,   0.98447, 2,    7843.69, -120.5,   0.98447, 3,    7843.69,  119.5,   0.98447
"SCN_CN05_9128_CEI027", 13.8, 1,    7841.99,   -0.5,   0.98426, 2,    7841.99, -120.5,   0.98426, 3,    7841.99,  119.5,   0.98426
"SCN_CN05_9127_CEI027", 13.8, 1,    7840.28,   -0.5,   0.98404, 2,    7840.28, -120.5,   0.98404, 3,    7840.28,  119.5,   0.98404
"SCN_CN05_9107_CEI027", 13.8, 1,    7838.58,   -0.5,   0.98383, 2,    7838.58, -120.5,   0.98383, 3,    7838.58,  119.5,   0.98383
"SCN_CN05_9106_CEI027", 13.8, 1,    7836.89,   -0.5,   0.98362, 2,    7836.89, -120.5,   0.98362, 3,    7836.89,  119.5,   0.98362
"SCN_CN05_9485_CEI026", 13.8, 1,    7828.72,   -0.5,   0.98259, 2,    7828.72, -120.5,   0.98259, 3,    7828.72,  119.5,   0.98259
"SCN_CN05_9486_CEI026", 13.8, 1,    7829.36,   -0.5,   0.98267, 2,    7829.36, -120.5,   0.98267, 3,    7829.36,  119.5,   0.98267
"SCN_CN05_9486_CEI026_S", 13.8, 1,    7829.36,   -0.5,   0.98267, 2,    7829.36, -120.5,   0.98267, 3,    7829.36,  119.5,   0.98267
"SCN_CN05_9782_CEI026", 13.8, 1,    7830.01,   -0.5,   0.98275, 2,    7830.01, -120.5,   0.98275, 3,    7830.01,  119.5,   0.98275
"SCN_CN05_9119_CEI027", 13.8, 1,    7830.65,   -0.5,   0.98283, 2,    7830.65, -120.5,   0.98283, 3,    7830.65,  119.5,   0.98283
"SCN_CN05_9117_CEI027", 13.8, 1,     7831.3,   -0.5,   0.98291, 2,     7831.3, -120.5,   0.98291, 3,     7831.3,  119.5,   0.98291
"SCN_CN05_9116_CEI027", 13.8, 1,    7831.94,   -0.5,   0.98299, 2,    7831.94, -120.5,   0.98299, 3,    7831.94,  119.5,   0.98299
"SCN_CN05_9114_CEI027", 13.8, 1,    7832.59,   -0.5,   0.98308, 2,    7832.59, -120.5,   0.98308, 3,    7832.59,  119.5,   0.98308
"SCN_CN05_9113_CEI027", 13.8, 1,    7833.25,   -0.5,   0.98316, 2,    7833.25, -120.5,   0.98316, 3,    7833.25,  119.5,   0.98316
"SCN_CN05_9111_CEI027", 13.8, 1,     7833.9,   -0.5,   0.98324, 2,     7833.9, -120.5,   0.98324, 3,     7833.9,  119.5,   0.98324
"SCN_CN05_9109_CEI027", 13.8, 1,    7834.56,   -0.5,   0.98332, 2,    7834.56, -120.5,   0.98332, 3,    7834.56,  119.5,   0.98332
"SCN_CN05_9510_CEI027", 13.8, 1,    7814.59,   -0.5,   0.98082, 2,    7814.59, -120.5,   0.98082, 3,    7814.59,  119.5,   0.98082
"SCN_CN05_419188_CEI", 13.8, 1,    7814.59,   -0.5,   0.98082, 2,    7814.59, -120.5,   0.98082, 3,    7814.59,  119.5,   0.98082
"SCN_CN05_9014_CEI027", 13.8, 1,    7835.15,   -0.5,    0.9834, 2,    7835.15, -120.5,    0.9834, 3,    7835.15,  119.5,    0.9834
"SCN_CN05_9015_CEI027", 13.8, 1,    7835.18,   -0.5,    0.9834, 2,    7835.18, -120.5,    0.9834, 3,    7835.18,  119.5,    0.9834
"SCN_CN05_9013_CEI027", 13.8, 1,    7835.13,   -0.5,   0.98339, 2,    7835.13, -120.5,   0.98339, 3,    7835.13,  119.5,   0.98339
"SCN_CN05_9012_CEI027", 13.8, 1,     7835.1,   -0.5,   0.98339, 2,     7835.1, -120.5,   0.98339, 3,     7835.1,  119.5,   0.98339
"SCN_CN05_9103_CEI027", 13.8, 1,    7833.21,   -0.5,   0.98315, 2,    7833.21, -120.5,   0.98315, 3,    7833.21,  119.5,   0.98315
"SCN_CN05_9104_CEI027", 13.8, 1,    7834.21,   -0.5,   0.98328, 2,    7834.21, -120.5,   0.98328, 3,    7834.21,  119.5,   0.98328
"SCN_CN05_9102_CEI027", 13.8, 1,    7832.21,   -0.5,   0.98303, 2,    7832.21, -120.5,   0.98303, 3,    7832.21,  119.5,   0.98303
"SCN_CN05_9101_CEI027", 13.8, 1,    7831.21,   -0.5,    0.9829, 2,    7831.21, -120.5,    0.9829, 3,    7831.21,  119.5,    0.9829
"SCN_CN05_9100_CEI027", 13.8, 1,    7830.21,   -0.5,   0.98278, 2,    7830.21, -120.5,   0.98278, 3,    7830.21,  119.5,   0.98278
"SCN_CN05_9099_CEI027", 13.8, 1,    7829.21,   -0.5,   0.98265, 2,    7829.21, -120.5,   0.98265, 3,    7829.21,  119.5,   0.98265
"SCN_CN05_9098_CEI027", 13.8, 1,    7828.22,   -0.5,   0.98253, 2,    7828.22, -120.5,   0.98253, 3,    7828.22,  119.5,   0.98253
"SCN_CN05_9028_CEI027", 13.8, 1,     7827.2,   -0.5,    0.9824, 2,     7827.2, -120.5,    0.9824, 3,     7827.2,  119.5,    0.9824
"SCN_CN05_9035_CEI027", 13.8, 1,    7827.21,   -0.5,    0.9824, 2,    7827.21, -120.5,    0.9824, 3,    7827.21,  119.5,    0.9824
"SCN_CN05_9027_CEI027", 13.8, 1,     7827.2,   -0.5,    0.9824, 2,     7827.2, -120.5,    0.9824, 3,     7827.2,  119.5,    0.9824
"SCN_CN05_9090_CEI027", 13.8, 1,    7825.25,   -0.5,   0.98215, 2,    7825.25, -120.5,   0.98215, 3,    7825.25,  119.5,   0.98215
"SCN_CN05_9139_CEI027", 13.8, 1,    7825.24,   -0.5,   0.98215, 2,    7825.24, -120.5,   0.98215, 3,    7825.24,  119.5,   0.98215
"SCN_CN05_9093_CEI027", 13.8, 1,    7826.23,   -0.5,   0.98228, 2,    7826.23, -120.5,   0.98228, 3,    7826.23,  119.5,   0.98228
"SCN_CN05_CEI_FL_MT_1294", 13.8, 1,    7827.22,   -0.5,    0.9824, 2,    7827.22, -120.5,    0.9824, 3,    7827.22,  119.5,    0.9824
"SCN_CN05_9094_CEI027", 13.8, 1,    7827.22,   -0.5,    0.9824, 2,    7827.22, -120.5,    0.9824, 3,    7827.22,  119.5,    0.9824
"SCN_CN05_9095_CEI027", 13.8, 1,    7827.22,   -0.5,    0.9824, 2,    7827.22, -120.5,    0.9824, 3,    7827.22,  119.5,    0.9824
"SCN_CN05_9141_CEI027", 13.8, 1,    7824.27,   -0.5,   0.98203, 2,    7824.27, -120.5,   0.98203, 3,    7824.27,  119.5,   0.98203
"SCN_CN05_9087_CEI027", 13.8, 1,     7823.3,   -0.5,   0.98191, 2,     7823.3, -120.5,   0.98191, 3,     7823.3,  119.5,   0.98191
"SCN_CN05_9086_CEI027", 13.8, 1,    7822.32,   -0.5,   0.98179, 2,    7822.32, -120.5,   0.98179, 3,    7822.32,  119.5,   0.98179
"SCN_CN05_9085_CEI027", 13.8, 1,    7821.34,   -0.5,   0.98166, 2,    7821.34, -120.5,   0.98166, 3,    7821.34,  119.5,   0.98166
"SCN_CN05_9084_CEI027", 13.8, 1,    7820.37,   -0.5,   0.98154, 2,    7820.37, -120.5,   0.98154, 3,    7820.37,  119.5,   0.98154
"SCN_CN05_9083_CEI027", 13.8, 1,    7819.39,   -0.5,   0.98142, 2,    7819.39, -120.5,   0.98142, 3,    7819.39,  119.5,   0.98142
"SCN_CN05_9046_CEI027", 13.8, 1,    7819.39,   -0.5,   0.98142, 2,    7819.39, -120.5,   0.98142, 3,    7819.39,  119.5,   0.98142
"SCN_CN05_9045_CEI027", 13.8, 1,    7819.38,   -0.5,   0.98142, 2,    7819.38, -120.5,   0.98142, 3,    7819.38,  119.5,   0.98142
"SCN_CN05_9044_CEI027", 13.8, 1,    7819.38,   -0.5,   0.98142, 2,    7819.38, -120.5,   0.98142, 3,    7819.38,  119.5,   0.98142
"SCN_CN05_9082_CEI027", 13.8, 1,    7818.42,   -0.5,    0.9813, 2,    7818.42, -120.5,    0.9813, 3,    7818.42,  119.5,    0.9813
"SCN_CN05_9080_CEI027", 13.8, 1,    7817.44,   -0.5,   0.98117, 2,    7817.44, -120.5,   0.98117, 3,    7817.44,  119.5,   0.98117
"SCN_CN05_9050_CEI027", 13.8, 1,    7816.46,   -0.5,   0.98105, 2,    7816.46, -120.5,   0.98105, 3,    7816.46,  119.5,   0.98105
"SCN_CN05_9051_CEI027", 13.8, 1,    7816.46,   -0.5,   0.98105, 2,    7816.46, -120.5,   0.98105, 3,    7816.46,  119.5,   0.98105
"SCN_CN05_9051_CEI027_S", 13.8, 1,    7816.46,   -0.5,   0.98105, 2,    7816.46, -120.5,   0.98105, 3,    7816.46,  119.5,   0.98105
"SCN_CN05_9052_CEI027", 13.8, 1,    7816.46,   -0.5,   0.98105, 2,    7816.46, -120.5,   0.98105, 3,    7816.46,  119.5,   0.98105
"SCN_CN05_9674_CEI026", 13.8, 1,    7822.13,   -0.5,   0.98176, 2,    7822.13, -120.5,   0.98176, 3,    7822.13,  119.5,   0.98176
"SCN_CN05_9675_CEI026", 13.8, 1,    7822.19,   -0.5,   0.98177, 2,    7822.19, -120.5,   0.98177, 3,    7822.19,  119.5,   0.98177
"SCN_CN05_9671_CEI026", 13.8, 1,    7822.06,   -0.5,   0.98175, 2,    7822.06, -120.5,   0.98175, 3,    7822.06,  119.5,   0.98175
"SCN_CN05_9663_CEI026", 13.8, 1,       7822,   -0.5,   0.98175, 2,       7822, -120.5,   0.98175, 3,       7822,  119.5,   0.98175
"SCN_CN05_9648_CEI026", 13.8, 1,    7821.99,   -0.5,   0.98175, 2,    7821.99, -120.5,   0.98175, 3,    7821.99,  119.5,   0.98175
"SCN_CN05_9647_CEI026", 13.8, 1,    7821.99,   -0.5,   0.98175, 2,    7821.99, -120.5,   0.98175, 3,    7821.99,  119.5,   0.98175
"SCN_CN05_9646_CEI026", 13.8, 1,    7821.99,   -0.5,   0.98175, 2,    7821.99, -120.5,   0.98175, 3,    7821.99,  119.5,   0.98175
"SCN_CN05_9644_CEI026", 13.8, 1,    7820.78,   -0.5,   0.98159, 2,    7820.78, -120.5,   0.98159, 3,    7820.78,  119.5,   0.98159
"SCN_CN05_9645_CEI026", 13.8, 1,    7820.78,   -0.5,   0.98159, 2,    7820.78, -120.5,   0.98159, 3,    7820.78,  119.5,   0.98159
"SCN_CN05_9643_CEI026", 13.8, 1,    7820.78,   -0.5,   0.98159, 2,    7820.78, -120.5,   0.98159, 3,    7820.78,  119.5,   0.98159
"SCN_CN05_9642_CEI026", 13.8, 1,    7820.78,   -0.5,   0.98159, 2,    7820.78, -120.5,   0.98159, 3,    7820.78,  119.5,   0.98159
"SCN_CN05_9641_CEI026", 13.8, 1,    7820.79,   -0.5,   0.98159, 2,    7820.79, -120.5,   0.98159, 3,    7820.79,  119.5,   0.98159
"SCN_CN05_9640_CEI026", 13.8, 1,     7820.8,   -0.5,    0.9816, 2,     7820.8, -120.5,    0.9816, 3,     7820.8,  119.5,    0.9816
"SCN_CN05_9639_CEI026", 13.8, 1,    7820.81,   -0.5,    0.9816, 2,    7820.81, -120.5,    0.9816, 3,    7820.81,  119.5,    0.9816
"SCN_CN05_9634_CEI026", 13.8, 1,    7820.82,   -0.5,    0.9816, 2,    7820.82, -120.5,    0.9816, 3,    7820.82,  119.5,    0.9816
"SCN_CN05_9633_CEI026", 13.8, 1,    7820.84,   -0.5,    0.9816, 2,    7820.84, -120.5,    0.9816, 3,    7820.84,  119.5,    0.9816
"SCN_CN05_9632_CEI026", 13.8, 1,    7820.85,   -0.5,    0.9816, 2,    7820.85, -120.5,    0.9816, 3,    7820.85,  119.5,    0.9816
"SCN_CN05_9631_CEI026", 13.8, 1,    7820.86,   -0.5,    0.9816, 2,    7820.86, -120.5,    0.9816, 3,    7820.86,  119.5,    0.9816
"SCN_CN05_9630_CEI026", 13.8, 1,    7820.87,   -0.5,    0.9816, 2,    7820.87, -120.5,    0.9816, 3,    7820.87,  119.5,    0.9816
"SCN_CN05_9629_CEI026", 13.8, 1,    7820.88,   -0.5,   0.98161, 2,    7820.88, -120.5,   0.98161, 3,    7820.88,  119.5,   0.98161
"SCN_CN05_9619_CEI026", 13.8, 1,    7820.89,   -0.5,   0.98161, 2,    7820.89, -120.5,   0.98161, 3,    7820.89,  119.5,   0.98161
"SCN_CN05_9618_CEI026", 13.8, 1,     7820.9,   -0.5,   0.98161, 2,     7820.9, -120.5,   0.98161, 3,     7820.9,  119.5,   0.98161
"SCN_CN05_9620_CEI026", 13.8, 1,     7820.9,   -0.5,   0.98161, 2,     7820.9, -120.5,   0.98161, 3,     7820.9,  119.5,   0.98161
"SCN_CN05_9623_CEI026", 13.8, 1,    7820.89,   -0.5,   0.98161, 2,    7820.89, -120.5,   0.98161, 3,    7820.89,  119.5,   0.98161
"SCN_CN05_9624_CEI026", 13.8, 1,    7820.89,   -0.5,   0.98161, 2,    7820.89, -120.5,   0.98161, 3,    7820.89,  119.5,   0.98161
"SCN_CN05_9625_CEI026", 13.8, 1,    7820.88,   -0.5,   0.98161, 2,    7820.88, -120.5,   0.98161, 3,    7820.88,  119.5,   0.98161
"SCN_CN05_9628_CEI026", 13.8, 1,    7820.88,   -0.5,   0.98161, 2,    7820.88, -120.5,   0.98161, 3,    7820.88,  119.5,   0.98161
"SCN_CN05_9616_CEI026", 13.8, 1,    7820.92,   -0.5,   0.98161, 2,    7820.92, -120.5,   0.98161, 3,    7820.92,  119.5,   0.98161
"SCN_CN05_9614_CEI026", 13.8, 1,    7820.93,   -0.5,   0.98161, 2,    7820.93, -120.5,   0.98161, 3,    7820.93,  119.5,   0.98161
"SCN_CN05_9613_CEI026", 13.8, 1,    7820.94,   -0.5,   0.98161, 2,    7820.94, -120.5,   0.98161, 3,    7820.94,  119.5,   0.98161
"SCN_CN05_9579_CEI026", 13.8, 1,    7820.98,   -0.5,   0.98162, 2,    7820.98, -120.5,   0.98162, 3,    7820.98,  119.5,   0.98162
"SCN_CN05_9578_CEI026", 13.8, 1,    7821.01,   -0.5,   0.98162, 2,    7821.01, -120.5,   0.98162, 3,    7821.01,  119.5,   0.98162
"SCN_CN05_9580_CEI026", 13.8, 1,    7821.08,   -0.5,   0.98163, 2,    7821.08, -120.5,   0.98163, 3,    7821.08,  119.5,   0.98163
"SCN_CN05_9581_CEI026", 13.8, 1,    7821.16,   -0.5,   0.98164, 2,    7821.16, -120.5,   0.98164, 3,    7821.16,  119.5,   0.98164
"SCN_CN05_9583_CEI026", 13.8, 1,    7821.25,   -0.5,   0.98165, 2,    7821.25, -120.5,   0.98165, 3,    7821.25,  119.5,   0.98165
"SCN_CN05_9585_CEI026", 13.8, 1,    7821.33,   -0.5,   0.98166, 2,    7821.33, -120.5,   0.98166, 3,    7821.33,  119.5,   0.98166
"SCN_CN05_9586_CEI026", 13.8, 1,    7821.41,   -0.5,   0.98167, 2,    7821.41, -120.5,   0.98167, 3,    7821.41,  119.5,   0.98167
"SCN_CN05_9587_CEI026", 13.8, 1,     7821.5,   -0.5,   0.98168, 2,     7821.5, -120.5,   0.98168, 3,     7821.5,  119.5,   0.98168
"SCN_CN05_9588_CEI026", 13.8, 1,    7821.58,   -0.5,   0.98169, 2,    7821.58, -120.5,   0.98169, 3,    7821.58,  119.5,   0.98169
"SCN_CN05_9589_CEI026", 13.8, 1,    7821.66,   -0.5,    0.9817, 2,    7821.66, -120.5,    0.9817, 3,    7821.66,  119.5,    0.9817
"SCN_CN05_9511_CEI027", 13.8, 1,    7814.58,   -0.5,   0.98081, 2,    7814.58, -120.5,   0.98081, 3,    7814.58,  119.5,   0.98081
"SCN_CN05_9512_CEI027", 13.8, 1,    7814.56,   -0.5,   0.98081, 2,    7814.56, -120.5,   0.98081, 3,    7814.56,  119.5,   0.98081
"SCN_CN05_9513_CEI027", 13.8, 1,    7814.54,   -0.5,   0.98081, 2,    7814.54, -120.5,   0.98081, 3,    7814.54,  119.5,   0.98081
"SCN_CN05_9514_CEI027", 13.8, 1,    7814.53,   -0.5,   0.98081, 2,    7814.53, -120.5,   0.98081, 3,    7814.53,  119.5,   0.98081
"SCN_CN05_9292_CEI026", 13.8, 1,    7820.86,   -0.5,    0.9816, 2,    7820.86, -120.5,    0.9816, 3,    7820.86,  119.5,    0.9816
"SCN_CN05_9293_CEI026", 13.8, 1,    7820.86,   -0.5,    0.9816, 2,    7820.86, -120.5,    0.9816, 3,    7820.86,  119.5,    0.9816
"SCN_CN05_9294_CEI026", 13.8, 1,    7820.86,   -0.5,    0.9816, 2,    7820.86, -120.5,    0.9816, 3,    7820.86,  119.5,    0.9816
"SCN_CN05_9295_CEI026", 13.8, 1,    7820.86,   -0.5,    0.9816, 2,    7820.86, -120.5,    0.9816, 3,    7820.86,  119.5,    0.9816
"SCN_CN05_9590_CEI026", 13.8, 1,    7821.75,   -0.5,   0.98171, 2,    7821.75, -120.5,   0.98171, 3,    7821.75,  119.5,   0.98171
"SCN_CN05_9591_CEI026", 13.8, 1,    7821.66,   -0.5,    0.9817, 2,    7821.66, -120.5,    0.9817, 3,    7821.66,  119.5,    0.9817
"SCN_CN05_9592_CEI026", 13.8, 1,    7821.57,   -0.5,   0.98169, 2,    7821.57, -120.5,   0.98169, 3,    7821.57,  119.5,   0.98169
"SCN_CN05_9593_CEI026", 13.8, 1,    7821.49,   -0.5,   0.98168, 2,    7821.49, -120.5,   0.98168, 3,    7821.49,  119.5,   0.98168
"SCN_CN05_9594_CEI026", 13.8, 1,    7821.41,   -0.5,   0.98167, 2,    7821.41, -120.5,   0.98167, 3,    7821.41,  119.5,   0.98167
"SCN_CN05_9595_CEI026", 13.8, 1,    7821.34,   -0.5,   0.98166, 2,    7821.34, -120.5,   0.98166, 3,    7821.34,  119.5,   0.98166
"SCN_CN05_9596_CEI026", 13.8, 1,    7821.27,   -0.5,   0.98166, 2,    7821.27, -120.5,   0.98166, 3,    7821.27,  119.5,   0.98166
"SCN_CN05_9597_CEI026", 13.8, 1,     7821.2,   -0.5,   0.98165, 2,     7821.2, -120.5,   0.98165, 3,     7821.2,  119.5,   0.98165
"SCN_CN05_9138_CEIRJ002_ATV", 13.8, 1,    7821.18,   -0.5,   0.98164, 2,    7821.18, -120.5,   0.98164, 3,    7821.18,  119.5,   0.98164
"SCN_CN05_9599_CEI026", 13.8, 1,    7821.15,   -0.5,   0.98164, 2,    7821.15, -120.5,   0.98164, 3,    7821.15,  119.5,   0.98164
"SCN_CN05_9600_CEI026", 13.8, 1,    7821.12,   -0.5,   0.98164, 2,    7821.12, -120.5,   0.98164, 3,    7821.12,  119.5,   0.98164
"SCN_CN05_9603_CEI026", 13.8, 1,     7821.1,   -0.5,   0.98163, 2,     7821.1, -120.5,   0.98163, 3,     7821.1,  119.5,   0.98163
"SCN_CN05_9604_CEI026", 13.8, 1,    7821.07,   -0.5,   0.98163, 2,    7821.07, -120.5,   0.98163, 3,    7821.07,  119.5,   0.98163
"SCN_CN05_9605_CEI026", 13.8, 1,    7821.05,   -0.5,   0.98163, 2,    7821.05, -120.5,   0.98163, 3,    7821.05,  119.5,   0.98163
"SCN_CN05_9606_CEI026", 13.8, 1,    7821.02,   -0.5,   0.98162, 2,    7821.02, -120.5,   0.98162, 3,    7821.02,  119.5,   0.98162
"SCN_CN05_9607_CEI026", 13.8, 1,    7820.99,   -0.5,   0.98162, 2,    7820.99, -120.5,   0.98162, 3,    7820.99,  119.5,   0.98162
"SCN_CN05_9610_CEI026", 13.8, 1,    7820.97,   -0.5,   0.98162, 2,    7820.97, -120.5,   0.98162, 3,    7820.97,  119.5,   0.98162
"SCN_CN05_9611_CEI026", 13.8, 1,    7820.94,   -0.5,   0.98161, 2,    7820.94, -120.5,   0.98161, 3,    7820.94,  119.5,   0.98161
"SCN_CN05_9612_CEI026", 13.8, 1,    7820.94,   -0.5,   0.98161, 2,    7820.94, -120.5,   0.98161, 3,    7820.94,  119.5,   0.98161
"SCN_CN05_9577_CEI026", 13.8, 1,    7820.96,   -0.5,   0.98162, 2,    7820.96, -120.5,   0.98162, 3,    7820.96,  119.5,   0.98162
"SCN_CN05_9576_CEI026", 13.8, 1,    7820.92,   -0.5,   0.98161, 2,    7820.92, -120.5,   0.98161, 3,    7820.92,  119.5,   0.98161
"SCN_CN05_9575_CEI026", 13.8, 1,    7820.87,   -0.5,   0.98161, 2,    7820.87, -120.5,   0.98161, 3,    7820.87,  119.5,   0.98161
"SCN_CN05_9571_CEI026", 13.8, 1,    7820.83,   -0.5,    0.9816, 2,    7820.83, -120.5,    0.9816, 3,    7820.83,  119.5,    0.9816
"SCN_CN05_9570_CEI026", 13.8, 1,    7820.78,   -0.5,   0.98159, 2,    7820.78, -120.5,   0.98159, 3,    7820.78,  119.5,   0.98159
"SCN_CN05_9569_CEI026", 13.8, 1,    7820.76,   -0.5,   0.98159, 2,    7820.76, -120.5,   0.98159, 3,    7820.76,  119.5,   0.98159
"SCN_CN05_9567_CEI026", 13.8, 1,    7820.74,   -0.5,   0.98159, 2,    7820.74, -120.5,   0.98159, 3,    7820.74,  119.5,   0.98159
"SCN_CN05_9566_CEI026", 13.8, 1,    7820.72,   -0.5,   0.98159, 2,    7820.72, -120.5,   0.98159, 3,    7820.72,  119.5,   0.98159
"SCN_CN05_9564_CEI026", 13.8, 1,    7820.71,   -0.5,   0.98158, 2,    7820.71, -120.5,   0.98158, 3,    7820.71,  119.5,   0.98158
"SCN_CN05_9562_CEI026", 13.8, 1,    7820.71,   -0.5,   0.98158, 2,    7820.71, -120.5,   0.98158, 3,    7820.71,  119.5,   0.98158
"SCN_CN05_9563_CEI026", 13.8, 1,    7820.71,   -0.5,   0.98158, 2,    7820.71, -120.5,   0.98158, 3,    7820.71,  119.5,   0.98158
"SCN_CN05_9558_CEI026", 13.8, 1,     7820.7,   -0.5,   0.98158, 2,     7820.7, -120.5,   0.98158, 3,     7820.7,  119.5,   0.98158
"SCN_CN05_9557_CEI026", 13.8, 1,    7820.68,   -0.5,   0.98158, 2,    7820.68, -120.5,   0.98158, 3,    7820.68,  119.5,   0.98158
"SCN_CN05_9556_CEI026", 13.8, 1,    7820.67,   -0.5,   0.98158, 2,    7820.67, -120.5,   0.98158, 3,    7820.67,  119.5,   0.98158
"SCN_CN05_9555_CEI026", 13.8, 1,    7820.67,   -0.5,   0.98158, 2,    7820.67, -120.5,   0.98158, 3,    7820.67,  119.5,   0.98158
"SCN_CN05_9553_CEI026", 13.8, 1,    7820.67,   -0.5,   0.98158, 2,    7820.67, -120.5,   0.98158, 3,    7820.67,  119.5,   0.98158
"SCN_CN05_9551_CEI026", 13.8, 1,    7820.67,   -0.5,   0.98158, 2,    7820.67, -120.5,   0.98158, 3,    7820.67,  119.5,   0.98158
"SCN_CN05_9480_CEI026", 13.8, 1,    7826.21,   -0.5,   0.98227, 2,    7826.21, -120.5,   0.98227, 3,    7826.21,  119.5,   0.98227
"SCN_CN05_9481_CEI026", 13.8, 1,    7826.83,   -0.5,   0.98235, 2,    7826.83, -120.5,   0.98235, 3,    7826.83,  119.5,   0.98235
"SCN_CN05_9479_CEI026", 13.8, 1,    7825.58,   -0.5,    0.9822, 2,    7825.58, -120.5,    0.9822, 3,    7825.58,  119.5,    0.9822
"SCN_CN05_9478_CEI026", 13.8, 1,    7824.96,   -0.5,   0.98212, 2,    7824.96, -120.5,   0.98212, 3,    7824.96,  119.5,   0.98212
"SCN_CN05_9477_CEI026", 13.8, 1,    7824.34,   -0.5,   0.98204, 2,    7824.34, -120.5,   0.98204, 3,    7824.34,  119.5,   0.98204
"SCN_CN05_9476_CEI026", 13.8, 1,    7823.72,   -0.5,   0.98196, 2,    7823.72, -120.5,   0.98196, 3,    7823.72,  119.5,   0.98196
"SCN_CN05_9475_CEI026", 13.8, 1,    7823.11,   -0.5,   0.98189, 2,    7823.11, -120.5,   0.98189, 3,    7823.11,  119.5,   0.98189
"SCN_CN05_CEI_FL_MT_1332", 13.8, 1,     7822.5,   -0.5,   0.98181, 2,     7822.5, -120.5,   0.98181, 3,     7822.5,  119.5,   0.98181
"SCN_CN05_CEI_FL_MT_1333", 13.8, 1,    7822.26,   -0.5,   0.98178, 2,    7822.26, -120.5,   0.98178, 3,    7822.26,  119.5,   0.98178
"SCN_CN05_9675_CEI026_S", 13.8, 1,    7822.19,   -0.5,   0.98177, 2,    7822.19, -120.5,   0.98177, 3,    7822.19,  119.5,   0.98177
"SCN_CN05_9679_CEI026", 13.8, 1,    7822.26,   -0.5,   0.98178, 2,    7822.26, -120.5,   0.98178, 3,    7822.26,  119.5,   0.98178
"SCN_CN05_9678_CEI026", 13.8, 1,    7822.09,   -0.5,   0.98176, 2,    7822.09, -120.5,   0.98176, 3,    7822.09,  119.5,   0.98176
"SCN_CN05_9677_CEI026", 13.8, 1,    7821.92,   -0.5,   0.98174, 2,    7821.92, -120.5,   0.98174, 3,    7821.92,  119.5,   0.98174
"SCN_CN05_9474_CEI026", 13.8, 1,    7822.37,   -0.5,   0.98179, 2,    7822.37, -120.5,   0.98179, 3,    7822.37,  119.5,   0.98179
"SCN_CN05_9448_CEI026", 13.8, 1,    7822.24,   -0.5,   0.98178, 2,    7822.24, -120.5,   0.98178, 3,    7822.24,  119.5,   0.98178
"SCN_CN05_9447_CEI026", 13.8, 1,    7822.11,   -0.5,   0.98176, 2,    7822.11, -120.5,   0.98176, 3,    7822.11,  119.5,   0.98176
"SCN_CN05_9446_CEI026", 13.8, 1,    7821.98,   -0.5,   0.98174, 2,    7821.98, -120.5,   0.98174, 3,    7821.98,  119.5,   0.98174
"SCN_CN05_9444_CEI026", 13.8, 1,    7821.86,   -0.5,   0.98173, 2,    7821.86, -120.5,   0.98173, 3,    7821.86,  119.5,   0.98173
"SCN_CN05_9442_CEI026", 13.8, 1,    7821.85,   -0.5,   0.98173, 2,    7821.85, -120.5,   0.98173, 3,    7821.85,  119.5,   0.98173
"SCN_CN05_9441_CEI026", 13.8, 1,    7821.84,   -0.5,   0.98173, 2,    7821.84, -120.5,   0.98173, 3,    7821.84,  119.5,   0.98173
"SCN_CN05_9440_CEI026", 13.8, 1,    7821.82,   -0.5,   0.98172, 2,    7821.82, -120.5,   0.98172, 3,    7821.82,  119.5,   0.98172
"SCN_CN05_9393_CEI026", 13.8, 1,    7821.75,   -0.5,   0.98171, 2,    7821.75, -120.5,   0.98171, 3,    7821.75,  119.5,   0.98171
"SCN_CN05_9473_CEI026", 13.8, 1,    7822.26,   -0.5,   0.98178, 2,    7822.26, -120.5,   0.98178, 3,    7822.26,  119.5,   0.98178
"SCN_CN05_9472_CEI026", 13.8, 1,    7822.01,   -0.5,   0.98175, 2,    7822.01, -120.5,   0.98175, 3,    7822.01,  119.5,   0.98175
"SCN_CN05_9471_CEI026", 13.8, 1,    7821.77,   -0.5,   0.98172, 2,    7821.77, -120.5,   0.98172, 3,    7821.77,  119.5,   0.98172
"SCN_CN05_9470_CEI026", 13.8, 1,    7821.53,   -0.5,   0.98169, 2,    7821.53, -120.5,   0.98169, 3,    7821.53,  119.5,   0.98169
"SCN_CN05_9469_CEI026", 13.8, 1,    7821.29,   -0.5,   0.98166, 2,    7821.29, -120.5,   0.98166, 3,    7821.29,  119.5,   0.98166
"SCN_CN05_9468_CEI026", 13.8, 1,    7821.05,   -0.5,   0.98163, 2,    7821.05, -120.5,   0.98163, 3,    7821.05,  119.5,   0.98163
"SCN_CN05_9467_CEI026", 13.8, 1,    7820.82,   -0.5,    0.9816, 2,    7820.82, -120.5,    0.9816, 3,    7820.82,  119.5,    0.9816
"SCN_CN05_9466_CEI026", 13.8, 1,    7820.59,   -0.5,   0.98157, 2,    7820.59, -120.5,   0.98157, 3,    7820.59,  119.5,   0.98157
"SCN_CN05_9877_CEI026", 13.8, 1,    7820.36,   -0.5,   0.98154, 2,    7820.36, -120.5,   0.98154, 3,    7820.36,  119.5,   0.98154
"SCN_CN05_9461_CEI026", 13.8, 1,    7820.36,   -0.5,   0.98154, 2,    7820.36, -120.5,   0.98154, 3,    7820.36,  119.5,   0.98154
"SCN_CN05_9875_CEI026", 13.8, 1,    7820.13,   -0.5,   0.98151, 2,    7820.13, -120.5,   0.98151, 3,    7820.13,  119.5,   0.98151
"SCN_CN05_9874_CEI026", 13.8, 1,     7819.9,   -0.5,   0.98148, 2,     7819.9, -120.5,   0.98148, 3,     7819.9,  119.5,   0.98148
"SCN_CN05_9872_CEI026", 13.8, 1,    7819.67,   -0.5,   0.98145, 2,    7819.67, -120.5,   0.98145, 3,    7819.67,  119.5,   0.98145
"SCN_CN05_9871_CEI026", 13.8, 1,    7819.44,   -0.5,   0.98143, 2,    7819.44, -120.5,   0.98143, 3,    7819.44,  119.5,   0.98143
"SCN_CN05_9869_CEI026", 13.8, 1,    7819.21,   -0.5,    0.9814, 2,    7819.21, -120.5,    0.9814, 3,    7819.21,  119.5,    0.9814
"SCN_CN05_9867_CEI026", 13.8, 1,    7818.98,   -0.5,   0.98137, 2,    7818.98, -120.5,   0.98137, 3,    7818.98,  119.5,   0.98137
"SCN_CN05_9866_CEI026", 13.8, 1,    7818.75,   -0.5,   0.98134, 2,    7818.75, -120.5,   0.98134, 3,    7818.75,  119.5,   0.98134
"SCN_CN05_9864_CEI026", 13.8, 1,    7818.52,   -0.5,   0.98131, 2,    7818.52, -120.5,   0.98131, 3,    7818.52,  119.5,   0.98131
"SCN_CN05_9866_CEI026_S", 13.8, 1,    7818.75,   -0.5,   0.98134, 2,    7818.75, -120.5,   0.98134, 3,    7818.75,  119.5,   0.98134
"SCN_CN05_9863_CEI026", 13.8, 1,    7818.29,   -0.5,   0.98128, 2,    7818.29, -120.5,   0.98128, 3,    7818.29,  119.5,   0.98128
"SCN_CN05_9861_CEI026", 13.8, 1,    7818.06,   -0.5,   0.98125, 2,    7818.06, -120.5,   0.98125, 3,    7818.06,  119.5,   0.98125
"SCN_CN05_9531_CEI026", 13.8, 1,       7818,   -0.5,   0.98124, 2,       7818, -120.5,   0.98124, 3,       7818,  119.5,   0.98124
"SCN_CN05_9532_CEI026", 13.8, 1,    7817.94,   -0.5,   0.98124, 2,    7817.94, -120.5,   0.98124, 3,    7817.94,  119.5,   0.98124
"SCN_CN05_9534_CEI026", 13.8, 1,    7817.88,   -0.5,   0.98123, 2,    7817.88, -120.5,   0.98123, 3,    7817.88,  119.5,   0.98123
"SCN_CN05_9536_CEI026", 13.8, 1,    7817.83,   -0.5,   0.98122, 2,    7817.83, -120.5,   0.98122, 3,    7817.83,  119.5,   0.98122
"SCN_CN05_9538_CEI026", 13.8, 1,    7817.78,   -0.5,   0.98122, 2,    7817.78, -120.5,   0.98122, 3,    7817.78,  119.5,   0.98122
"SCN_CN05_9541_CEI026", 13.8, 1,    7817.73,   -0.5,   0.98121, 2,    7817.73, -120.5,   0.98121, 3,    7817.73,  119.5,   0.98121
"SCN_CN05_9539_CEI026", 13.8, 1,     7817.7,   -0.5,   0.98121, 2,     7817.7, -120.5,   0.98121, 3,     7817.7,  119.5,   0.98121
"SCN_CN05_9542_CEI026", 13.8, 1,    7817.72,   -0.5,   0.98121, 2,    7817.72, -120.5,   0.98121, 3,    7817.72,  119.5,   0.98121
"SCN_CN05_9544_CEI026", 13.8, 1,    7817.72,   -0.5,   0.98121, 2,    7817.72, -120.5,   0.98121, 3,    7817.72,  119.5,   0.98121
"SCN_CN05_9546_CEI026", 13.8, 1,    7817.72,   -0.5,   0.98121, 2,    7817.72, -120.5,   0.98121, 3,    7817.72,  119.5,   0.98121
"SCN_CN05_9152_CEIRJ002_ATV", 13.8, 1,    7817.72,   -0.5,   0.98121, 2,    7817.72, -120.5,   0.98121, 3,    7817.72,  119.5,   0.98121
"SCN_CN05_9203_CEI026", 13.8, 1,    7817.91,   -0.5,   0.98123, 2,    7817.91, -120.5,   0.98123, 3,    7817.91,  119.5,   0.98123
"SCN_CN05_9205_CEI026", 13.8, 1,    7817.91,   -0.5,   0.98123, 2,    7817.91, -120.5,   0.98123, 3,    7817.91,  119.5,   0.98123
"SCN_CN05_9650_CEI026", 13.8, 1,    7821.98,   -0.5,   0.98174, 2,    7821.98, -120.5,   0.98174, 3,    7821.98,  119.5,   0.98174
"SCN_CN05_9664_CEI026_S", 13.8, 1,    7821.97,   -0.5,   0.98174, 2,    7821.97, -120.5,   0.98174, 3,    7821.97,  119.5,   0.98174
"SCN_CN05_9665_CEI026", 13.8, 1,    7821.93,   -0.5,   0.98174, 2,    7821.93, -120.5,   0.98174, 3,    7821.93,  119.5,   0.98174
"SCN_CN05_9664_CEI026", 13.8, 1,    7821.97,   -0.5,   0.98174, 2,    7821.97, -120.5,   0.98174, 3,    7821.97,  119.5,   0.98174
"SCN_CN05_9666_CEI026", 13.8, 1,     7821.9,   -0.5,   0.98173, 2,     7821.9, -120.5,   0.98173, 3,     7821.9,  119.5,   0.98173
"SCN_CN05_9724_CEI026", 13.8, 1,    7821.87,   -0.5,   0.98173, 2,    7821.87, -120.5,   0.98173, 3,    7821.87,  119.5,   0.98173
"SCN_CN05_9452_CEI026", 13.8, 1,    7821.93,   -0.5,   0.98174, 2,    7821.93, -120.5,   0.98174, 3,    7821.93,  119.5,   0.98174
"SCN_CN05_9453_CEI026", 13.8, 1,    7821.92,   -0.5,   0.98174, 2,    7821.92, -120.5,   0.98174, 3,    7821.92,  119.5,   0.98174
"SCN_CN05_9451_CEI026", 13.8, 1,    7821.94,   -0.5,   0.98174, 2,    7821.94, -120.5,   0.98174, 3,    7821.94,  119.5,   0.98174
"SCN_CN05_9450_CEI026", 13.8, 1,    7821.96,   -0.5,   0.98174, 2,    7821.96, -120.5,   0.98174, 3,    7821.96,  119.5,   0.98174
"SCN_CN05_9449_CEI026", 13.8, 1,    7821.97,   -0.5,   0.98174, 2,    7821.97, -120.5,   0.98174, 3,    7821.97,  119.5,   0.98174
"SCN_CN05_9045_CEIRJ001_ATV", 13.8, 1,    7774.57,   -0.4,   0.97579, 2,    7774.57, -120.4,   0.97579, 3,    7774.57,  119.6,   0.97579
"SCN_CN05_9046_CEIRJ001_ATV", 13.8, 1,    7774.57,   -0.4,   0.97579, 2,    7774.57, -120.4,   0.97579, 3,    7774.57,  119.6,   0.97579
"SCN_CN05_9028_CEI065", 13.8, 1,    7774.57,   -0.4,   0.97579, 2,    7774.57, -120.4,   0.97579, 3,    7774.57,  119.6,   0.97579
"SCN_CN05_9128_CEI065", 13.8, 1,    7774.57,   -0.4,   0.97579, 2,    7774.57, -120.4,   0.97579, 3,    7774.57,  119.6,   0.97579
"SCN_CN05_9341_CEI065", 13.8, 1,    7774.57,   -0.4,   0.97579, 2,    7774.57, -120.4,   0.97579, 3,    7774.57,  119.6,   0.97579
"SCN_CN05_9104_CEIRJ001_ATV", 13.8, 1,    7774.57,   -0.4,   0.97579, 2,    7774.57, -120.4,   0.97579, 3,    7774.57,  119.6,   0.97579
"SCN_CN05_9347_CEI065", 13.8, 1,    7774.57,   -0.4,   0.97579, 2,    7774.57, -120.4,   0.97579, 3,    7774.57,  119.6,   0.97579
"CN_ALCN05", 13.8, 1,    7774.57,   -0.4,   0.97579, 2,    7774.57, -120.4,   0.97579, 3,    7774.57,  119.6,   0.97579
"SCN_CN05_9234_CEI026", 13.8, 1,     7817.5,   -0.5,   0.98118, 2,     7817.5, -120.5,   0.98118, 3,     7817.5,  119.5,   0.98118
"SCN_CN05_9232_CEI026", 13.8, 1,     7817.5,   -0.5,   0.98118, 2,     7817.5, -120.5,   0.98118, 3,     7817.5,  119.5,   0.98118
"SCN_CN05_9118_CEI026", 13.8, 1,    7817.56,   -0.5,   0.98119, 2,    7817.56, -120.5,   0.98119, 3,    7817.56,  119.5,   0.98119
"SCN_CN05_9242_CEI026", 13.8, 1,    7817.56,   -0.5,   0.98119, 2,    7817.56, -120.5,   0.98119, 3,    7817.56,  119.5,   0.98119
"SCN_CN05_9088_CEI026", 13.8, 1,    7817.56,   -0.5,   0.98119, 2,    7817.56, -120.5,   0.98119, 3,    7817.56,  119.5,   0.98119
"SCN_CN05_9087_CEI026", 13.8, 1,    7817.57,   -0.5,   0.98119, 2,    7817.57, -120.5,   0.98119, 3,    7817.57,  119.5,   0.98119
"SCN_CN05_9086_CEI026", 13.8, 1,    7817.58,   -0.5,   0.98119, 2,    7817.58, -120.5,   0.98119, 3,    7817.58,  119.5,   0.98119
"SCN_CN05_9085_CEI026", 13.8, 1,    7817.59,   -0.5,   0.98119, 2,    7817.59, -120.5,   0.98119, 3,    7817.59,  119.5,   0.98119
"SCN_CN05_9057_CEI026", 13.8, 1,    7817.61,   -0.5,    0.9812, 2,    7817.61, -120.5,    0.9812, 3,    7817.61,  119.5,    0.9812
"SCN_CN05_9085_CEI026_S", 13.8, 1,    7817.59,   -0.5,   0.98119, 2,    7817.59, -120.5,   0.98119, 3,    7817.59,  119.5,   0.98119
"SCN_CN05_9056_CEI026", 13.8, 1,    7817.64,   -0.5,    0.9812, 2,    7817.64, -120.5,    0.9812, 3,    7817.64,  119.5,    0.9812
"SCN_CN05_9055_CEI026", 13.8, 1,    7817.67,   -0.5,    0.9812, 2,    7817.67, -120.5,    0.9812, 3,    7817.67,  119.5,    0.9812
"SCN_CN05_9054_CEI026", 13.8, 1,     7817.7,   -0.5,   0.98121, 2,     7817.7, -120.5,   0.98121, 3,     7817.7,  119.5,   0.98121
"SCN_CN05_9034_CEI026", 13.8, 1,    7817.74,   -0.5,   0.98121, 2,    7817.74, -120.5,   0.98121, 3,    7817.74,  119.5,   0.98121
"SCN_CN05_9033_CEI026", 13.8, 1,     7817.8,   -0.5,   0.98122, 2,     7817.8, -120.5,   0.98122, 3,     7817.8,  119.5,   0.98122
"SCN_CN05_9032_CEI026", 13.8, 1,    7817.86,   -0.5,   0.98123, 2,    7817.86, -120.5,   0.98123, 3,    7817.86,  119.5,   0.98123
"SCN_CN05_9031_CEI026", 13.8, 1,    7817.92,   -0.5,   0.98123, 2,    7817.92, -120.5,   0.98123, 3,    7817.92,  119.5,   0.98123
"SCN_CN05_9030_CEI026", 13.8, 1,    7817.98,   -0.5,   0.98124, 2,    7817.98, -120.5,   0.98124, 3,    7817.98,  119.5,   0.98124
"SCN_CN05_9217_CEI026", 13.8, 1,    7817.97,   -0.5,   0.98124, 2,    7817.97, -120.5,   0.98124, 3,    7817.97,  119.5,   0.98124
"SCN_CN05_9219_CEI026", 13.8, 1,     7817.9,   -0.5,   0.98123, 2,     7817.9, -120.5,   0.98123, 3,     7817.9,  119.5,   0.98123
"SCN_CN05_9220_CEI026", 13.8, 1,    7817.85,   -0.5,   0.98123, 2,    7817.85, -120.5,   0.98123, 3,    7817.85,  119.5,   0.98123
"SCN_CN05_9221_CEI026", 13.8, 1,     7817.8,   -0.5,   0.98122, 2,     7817.8, -120.5,   0.98122, 3,     7817.8,  119.5,   0.98122
"SCN_CN05_9222_CEI026", 13.8, 1,    7817.75,   -0.5,   0.98121, 2,    7817.75, -120.5,   0.98121, 3,    7817.75,  119.5,   0.98121
"SCN_CN05_9223_CEI026", 13.8, 1,     7817.7,   -0.5,   0.98121, 2,     7817.7, -120.5,   0.98121, 3,     7817.7,  119.5,   0.98121
"SCN_CN05_9224_CEI026", 13.8, 1,    7817.67,   -0.5,    0.9812, 2,    7817.67, -120.5,    0.9812, 3,    7817.67,  119.5,    0.9812
"SCN_CN05_9225_CEI026", 13.8, 1,    7817.63,   -0.5,    0.9812, 2,    7817.63, -120.5,    0.9812, 3,    7817.63,  119.5,    0.9812
"SCN_CN05_9147_CEIRJ002_ATV", 13.8, 1,     7817.6,   -0.5,   0.98119, 2,     7817.6, -120.5,   0.98119, 3,     7817.6,  119.5,   0.98119
"SCN_CN05_9227_CEI026", 13.8, 1,    7817.57,   -0.5,   0.98119, 2,    7817.57, -120.5,   0.98119, 3,    7817.57,  119.5,   0.98119
"SCN_CN05_9228_CEI026", 13.8, 1,    7817.55,   -0.5,   0.98119, 2,    7817.55, -120.5,   0.98119, 3,    7817.55,  119.5,   0.98119
"SCN_CN05_9860_CEI026", 13.8, 1,    7817.54,   -0.5,   0.98119, 2,    7817.54, -120.5,   0.98119, 3,    7817.54,  119.5,   0.98119
"SCN_CN05_9230_CEI026", 13.8, 1,    7817.52,   -0.5,   0.98118, 2,    7817.52, -120.5,   0.98118, 3,    7817.52,  119.5,   0.98118
"SCN_CN05_9231_CEI026", 13.8, 1,     7817.5,   -0.5,   0.98118, 2,     7817.5, -120.5,   0.98118, 3,     7817.5,  119.5,   0.98118
"SCN_CN05_9062_CEI026", 13.8, 1,    7817.58,   -0.5,   0.98119, 2,    7817.58, -120.5,   0.98119, 3,    7817.58,  119.5,   0.98119
"SCN_CN05_9061_CEI026", 13.8, 1,    7817.59,   -0.5,   0.98119, 2,    7817.59, -120.5,   0.98119, 3,    7817.59,  119.5,   0.98119
"SCN_CN05_9060_CEI026", 13.8, 1,     7817.6,   -0.5,   0.98119, 2,     7817.6, -120.5,   0.98119, 3,     7817.6,  119.5,   0.98119
"SCN_CN05_9059_CEI026", 13.8, 1,    7817.61,   -0.5,    0.9812, 2,    7817.61, -120.5,    0.9812, 3,    7817.61,  119.5,    0.9812
"SCN_CN05_9058_CEI026", 13.8, 1,    7817.62,   -0.5,    0.9812, 2,    7817.62, -120.5,    0.9812, 3,    7817.62,  119.5,    0.9812
"SCN_CN05_9080_CEI026", 13.8, 1,    7817.54,   -0.5,   0.98119, 2,    7817.54, -120.5,   0.98119, 3,    7817.54,  119.5,   0.98119
"SCN_CN05_9081_CEI026", 13.8, 1,    7817.55,   -0.5,   0.98119, 2,    7817.55, -120.5,   0.98119, 3,    7817.55,  119.5,   0.98119
"SCN_CN05_9082_CEI026", 13.8, 1,    7817.56,   -0.5,   0.98119, 2,    7817.56, -120.5,   0.98119, 3,    7817.56,  119.5,   0.98119
"SCN_CN05_9083_CEI026", 13.8, 1,    7817.57,   -0.5,   0.98119, 2,    7817.57, -120.5,   0.98119, 3,    7817.57,  119.5,   0.98119
"SCN_CN05_9084_CEI026", 13.8, 1,    7817.58,   -0.5,   0.98119, 2,    7817.58, -120.5,   0.98119, 3,    7817.58,  119.5,   0.98119
"SCN_CN05_9207_CEI026", 13.8, 1,    7817.91,   -0.5,   0.98123, 2,    7817.91, -120.5,   0.98123, 3,    7817.91,  119.5,   0.98123
"SCN_CN05_9207_CEI026_S", 13.8, 1,    7817.91,   -0.5,   0.98123, 2,    7817.91, -120.5,   0.98123, 3,    7817.91,  119.5,   0.98123
"SCN_CN05_9209_CEI026", 13.8, 1,    7817.92,   -0.5,   0.98123, 2,    7817.92, -120.5,   0.98123, 3,    7817.92,  119.5,   0.98123
"SCN_CN05_9212_CEI026", 13.8, 1,    7817.92,   -0.5,   0.98123, 2,    7817.92, -120.5,   0.98123, 3,    7817.92,  119.5,   0.98123
"SCN_CN05_9214_CEI026", 13.8, 1,    7817.93,   -0.5,   0.98124, 2,    7817.93, -120.5,   0.98124, 3,    7817.93,  119.5,   0.98124
"SCN_CN05_9215_CEI026", 13.8, 1,    7817.94,   -0.5,   0.98124, 2,    7817.94, -120.5,   0.98124, 3,    7817.94,  119.5,   0.98124
"SCN_CN05_9216_CEI026", 13.8, 1,    7817.94,   -0.5,   0.98124, 2,    7817.94, -120.5,   0.98124, 3,    7817.94,  119.5,   0.98124
"SCN_CN05_9216_CEI026_S", 13.8, 1,    7817.94,   -0.5,   0.98124, 2,    7817.94, -120.5,   0.98124, 3,    7817.94,  119.5,   0.98124
"SCN_CN05_9035_CEIRJ001", 13.8, 1,    7817.93,   -0.5,   0.98124, 2,    7817.93, -120.5,   0.98124, 3,    7817.93,  119.5,   0.98124
"SCN_CN05_9034_CEIRJ001", 13.8, 1,    7817.91,   -0.5,   0.98123, 2,    7817.91, -120.5,   0.98123, 3,    7817.91,  119.5,   0.98123
"SCN_CN05_9116_CEI014_S", 13.8, 1,    7817.89,   -0.5,   0.98123, 2,    7817.89, -120.5,   0.98123, 3,    7817.89,  119.5,   0.98123
"SCN_CN05_9116_CEI014", 13.8, 1,    7817.89,   -0.5,   0.98123, 2,    7817.89, -120.5,   0.98123, 3,    7817.89,  119.5,   0.98123
"SCN_CN05_9117_CEI014", 13.8, 1,    7817.88,   -0.5,   0.98123, 2,    7817.88, -120.5,   0.98123, 3,    7817.88,  119.5,   0.98123
"SCN_CN05_9118_CEI014", 13.8, 1,    7817.86,   -0.5,   0.98123, 2,    7817.86, -120.5,   0.98123, 3,    7817.86,  119.5,   0.98123
"SCN_CN05_9119_CEI014", 13.8, 1,    7817.86,   -0.5,   0.98123, 2,    7817.86, -120.5,   0.98123, 3,    7817.86,  119.5,   0.98123
"SCN_CN05_9012_CEI013", 13.8, 1,    7817.97,   -0.5,   0.98124, 2,    7817.97, -120.5,   0.98124, 3,    7817.97,  119.5,   0.98124
"SCN_CN05_9013_CEI013", 13.8, 1,    7817.97,   -0.5,   0.98124, 2,    7817.97, -120.5,   0.98124, 3,    7817.97,  119.5,   0.98124
"SCN_CN05_9014_CEI013", 13.8, 1,    7817.97,   -0.5,   0.98124, 2,    7817.97, -120.5,   0.98124, 3,    7817.97,  119.5,   0.98124
"SCN_CN05_9015_CEI013", 13.8, 1,    7817.97,   -0.5,   0.98124, 2,    7817.97, -120.5,   0.98124, 3,    7817.97,  119.5,   0.98124
"SCN_CN05_9016_CEI013", 13.8, 1,    7817.97,   -0.5,   0.98124, 2,    7817.97, -120.5,   0.98124, 3,    7817.97,  119.5,   0.98124
"SCN_CN05_9326_CEI035", 13.8, 1,    7784.77,   -0.4,   0.97707, 2,    7784.77, -120.4,   0.97707, 3,    7784.77,  119.6,   0.97707
"SCN_CN05_9327_CEI035", 13.8, 1,    7785.57,   -0.4,   0.97717, 2,    7785.57, -120.4,   0.97717, 3,    7785.57,  119.6,   0.97717
"SCN_CN05_9325_CEI035", 13.8, 1,    7783.97,   -0.4,   0.97697, 2,    7783.97, -120.4,   0.97697, 3,    7783.97,  119.6,   0.97697
"SCN_CN05_9328_CEI035", 13.8, 1,    7786.38,   -0.4,   0.97728, 2,    7786.38, -120.4,   0.97728, 3,    7786.38,  119.6,   0.97728
"SCN_CN05_9329_CEI035", 13.8, 1,    7787.18,   -0.4,   0.97738, 2,    7787.18, -120.4,   0.97738, 3,    7787.18,  119.6,   0.97738
"SCN_CN05_9330_CEI035", 13.8, 1,    7787.98,   -0.5,   0.97748, 2,    7787.98, -120.5,   0.97748, 3,    7787.98,  119.5,   0.97748
"SCN_CN05_9331_CEI035", 13.8, 1,    7788.79,   -0.5,   0.97758, 2,    7788.79, -120.5,   0.97758, 3,    7788.79,  119.5,   0.97758
"SCN_CN05_9139_CEI035", 13.8, 1,    7788.78,   -0.5,   0.97758, 2,    7788.78, -120.5,   0.97758, 3,    7788.78,  119.5,   0.97758
"SCN_CN05_9332_CEI035", 13.8, 1,     7789.6,   -0.5,   0.97768, 2,     7789.6, -120.5,   0.97768, 3,     7789.6,  119.5,   0.97768
"SCN_CN05_CEI_FL_MT_1292", 13.8, 1,    7790.41,   -0.5,   0.97778, 2,    7790.41, -120.5,   0.97778, 3,    7790.41,  119.5,   0.97778
"SCN_CN05_9334_CEI035", 13.8, 1,    7791.22,   -0.5,   0.97788, 2,    7791.22, -120.5,   0.97788, 3,    7791.22,  119.5,   0.97788
"SCN_CN05_9059_CEIRJ001_ATV", 13.8, 1,    7790.41,   -0.5,   0.97778, 2,    7790.41, -120.5,   0.97778, 3,    7790.41,  119.5,   0.97778
"SCN_CN05_9341_CEI035", 13.8, 1,    7796.89,   -0.5,   0.97859, 2,    7796.89, -120.5,   0.97859, 3,    7796.89,  119.5,   0.97859
"SCN_CN05_9342_CEI035", 13.8, 1,     7797.7,   -0.5,    0.9787, 2,     7797.7, -120.5,    0.9787, 3,     7797.7,  119.5,    0.9787
"SCN_CN05_9340_CEI035", 13.8, 1,    7796.08,   -0.5,   0.97849, 2,    7796.08, -120.5,   0.97849, 3,    7796.08,  119.5,   0.97849
"SCN_CN05_9339_CEI035", 13.8, 1,    7795.27,   -0.5,   0.97839, 2,    7795.27, -120.5,   0.97839, 3,    7795.27,  119.5,   0.97839
"SCN_CN05_9338_CEI035", 13.8, 1,    7794.46,   -0.5,   0.97829, 2,    7794.46, -120.5,   0.97829, 3,    7794.46,  119.5,   0.97829
"SCN_CN05_9337_CEI035", 13.8, 1,    7793.65,   -0.5,   0.97819, 2,    7793.65, -120.5,   0.97819, 3,    7793.65,  119.5,   0.97819
"SCN_CN05_9336_CEI035", 13.8, 1,    7792.84,   -0.5,   0.97809, 2,    7792.84, -120.5,   0.97809, 3,    7792.84,  119.5,   0.97809
"SCN_CN05_9335_CEI035", 13.8, 1,    7792.03,   -0.5,   0.97798, 2,    7792.03, -120.5,   0.97798, 3,    7792.03,  119.5,   0.97798
"SCN_CN05_9135_CEI035", 13.8, 1,    7790.41,   -0.5,   0.97778, 2,    7790.41, -120.5,   0.97778, 3,    7790.41,  119.5,   0.97778
"SCN_CN05_9136_CEI035", 13.8, 1,    7790.41,   -0.5,   0.97778, 2,    7790.41, -120.5,   0.97778, 3,    7790.41,  119.5,   0.97778
"SCN_CN05_9150_CEI035", 13.8, 1,    7790.41,   -0.5,   0.97778, 2,    7790.41, -120.5,   0.97778, 3,    7790.41,  119.5,   0.97778
"SCN_CN05_9151_CEI035", 13.8, 1,    7790.41,   -0.5,   0.97778, 2,    7790.41, -120.5,   0.97778, 3,    7790.41,  119.5,   0.97778
"SCN_CN05_9152_CEI035", 13.8, 1,    7790.41,   -0.5,   0.97778, 2,    7790.41, -120.5,   0.97778, 3,    7790.41,  119.5,   0.97778
"SCN_CN05_9351_CEI035", 13.8, 1,    7798.51,   -0.5,    0.9788, 2,    7798.51, -120.5,    0.9788, 3,    7798.51,  119.5,    0.9788
"SCN_CN05_9343_CEI035", 13.8, 1,    7799.32,   -0.5,    0.9789, 2,    7799.32, -120.5,    0.9789, 3,    7799.32,  119.5,    0.9789
"SCN_CN05_9344_CEI035", 13.8, 1,    7800.13,   -0.5,     0.979, 2,    7800.13, -120.5,     0.979, 3,    7800.13,  119.5,     0.979
"SCN_CN05_CEI_FL_MT_1300", 13.8, 1,    7800.94,   -0.5,    0.9791, 2,    7800.94, -120.5,    0.9791, 3,    7800.94,  119.5,    0.9791
"SCN_CN05_9001_CEI035", 13.8, 1,    7800.94,   -0.5,    0.9791, 2,    7800.94, -120.5,    0.9791, 3,    7800.94,  119.5,    0.9791
"SCN_CN05_9345_CEI035", 13.8, 1,    7800.94,   -0.5,    0.9791, 2,    7800.94, -120.5,    0.9791, 3,    7800.94,  119.5,    0.9791
"SCN_CN05_9157_CEI035", 13.8, 1,    7796.89,   -0.5,   0.97859, 2,    7796.89, -120.5,   0.97859, 3,    7796.89,  119.5,   0.97859
"SCN_CN05_9158_CEI035", 13.8, 1,    7796.89,   -0.5,   0.97859, 2,    7796.89, -120.5,   0.97859, 3,    7796.89,  119.5,   0.97859
"SCN_CN05_9068_CEIRJ005", 13.8, 1,    7801.75,   -0.5,    0.9792, 2,    7801.75, -120.5,    0.9792, 3,    7801.75,  119.5,    0.9792
"SCN_CN05_9069_CEIRJ005", 13.8, 1,    7802.56,   -0.5,   0.97931, 2,    7802.56, -120.5,   0.97931, 3,    7802.56,  119.5,   0.97931
"SCN_CN05_9376_CEI027", 13.8, 1,    7803.37,   -0.5,   0.97941, 2,    7803.37, -120.5,   0.97941, 3,    7803.37,  119.5,   0.97941
"SCN_CN05_9377_CEI027", 13.8, 1,    7804.18,   -0.5,   0.97951, 2,    7804.18, -120.5,   0.97951, 3,    7804.18,  119.5,   0.97951
"SCN_CN05_9378_CEI027", 13.8, 1,    7804.99,   -0.5,   0.97961, 2,    7804.99, -120.5,   0.97961, 3,    7804.99,  119.5,   0.97961
"SCN_CN05_9379_CEI027", 13.8, 1,     7805.8,   -0.5,   0.97971, 2,     7805.8, -120.5,   0.97971, 3,     7805.8,  119.5,   0.97971
"SCN_CN05_9380_CEI027", 13.8, 1,    7806.61,   -0.5,   0.97981, 2,    7806.61, -120.5,   0.97981, 3,    7806.61,  119.5,   0.97981
"SCN_CN05_9381_CEI027", 13.8, 1,    7807.42,   -0.5,   0.97992, 2,    7807.42, -120.5,   0.97992, 3,    7807.42,  119.5,   0.97992
"SCN_CN05_9383_CEI027", 13.8, 1,    7808.23,   -0.5,   0.98002, 2,    7808.23, -120.5,   0.98002, 3,    7808.23,  119.5,   0.98002
"SCN_CN05_9388_CEI027", 13.8, 1,    7808.22,   -0.5,   0.98002, 2,    7808.22, -120.5,   0.98002, 3,    7808.22,  119.5,   0.98002
"SCN_CN05_9386_CEI027", 13.8, 1,    7809.05,   -0.5,   0.98012, 2,    7809.05, -120.5,   0.98012, 3,    7809.05,  119.5,   0.98012
"SCN_CN05_9072_CEI027", 13.8, 1,    7809.86,   -0.5,   0.98022, 2,    7809.86, -120.5,   0.98022, 3,    7809.86,  119.5,   0.98022
"SCN_CN05_9073_CEI027", 13.8, 1,    7810.68,   -0.5,   0.98033, 2,    7810.68, -120.5,   0.98033, 3,    7810.68,  119.5,   0.98033
"SCN_CN05_9074_CEI027", 13.8, 1,    7811.51,   -0.5,   0.98043, 2,    7811.51, -120.5,   0.98043, 3,    7811.51,  119.5,   0.98043
"SCN_CN05_9075_CEI027", 13.8, 1,    7812.33,   -0.5,   0.98053, 2,    7812.33, -120.5,   0.98053, 3,    7812.33,  119.5,   0.98053
"SCN_CN05_9076_CEI027", 13.8, 1,    7813.16,   -0.5,   0.98064, 2,    7813.16, -120.5,   0.98064, 3,    7813.16,  119.5,   0.98064
"SCN_CN05_9077_CEI027", 13.8, 1,    7813.99,   -0.5,   0.98074, 2,    7813.99, -120.5,   0.98074, 3,    7813.99,  119.5,   0.98074
"SCN_CN05_9078_CEI027", 13.8, 1,    7814.82,   -0.5,   0.98084, 2,    7814.82, -120.5,   0.98084, 3,    7814.82,  119.5,   0.98084
"SCN_CN05_9079_CEI027", 13.8, 1,    7815.64,   -0.5,   0.98095, 2,    7815.64, -120.5,   0.98095, 3,    7815.64,  119.5,   0.98095
"SCN_CN05_9185_CEI027", 13.8, 1,    7815.67,   -0.5,   0.98095, 2,    7815.67, -120.5,   0.98095, 3,    7815.67,  119.5,   0.98095
"SCN_CN05_9184_CEI027", 13.8, 1,    7815.66,   -0.5,   0.98095, 2,    7815.66, -120.5,   0.98095, 3,    7815.66,  119.5,   0.98095
"SCN_CN05_9186_CEI027", 13.8, 1,    7815.68,   -0.5,   0.98095, 2,    7815.68, -120.5,   0.98095, 3,    7815.68,  119.5,   0.98095
"SCN_CN05_9187_CEI027", 13.8, 1,    7815.69,   -0.5,   0.98095, 2,    7815.69, -120.5,   0.98095, 3,    7815.69,  119.5,   0.98095
"SCN_CN05_9188_CEI027", 13.8, 1,     7815.7,   -0.5,   0.98096, 2,     7815.7, -120.5,   0.98096, 3,     7815.7,  119.5,   0.98096
"SCN_CN05_9157_CEI027", 13.8, 1,    7816.07,   -0.5,     0.981, 2,    7816.07, -120.5,     0.981, 3,    7816.07,  119.5,     0.981
"SCN_CN05_9158_CEI027", 13.8, 1,    7815.96,   -0.5,   0.98099, 2,    7815.96, -120.5,   0.98099, 3,    7815.96,  119.5,   0.98099
"SCN_CN05_9156_CEI027", 13.8, 1,    7816.19,   -0.5,   0.98102, 2,    7816.19, -120.5,   0.98102, 3,    7816.19,  119.5,   0.98102
"SCN_CN05_9156_CEI027_S", 13.8, 1,    7816.19,   -0.5,   0.98102, 2,    7816.19, -120.5,   0.98102, 3,    7816.19,  119.5,   0.98102
"SCN_CN05_9154_CEI027", 13.8, 1,    7816.33,   -0.5,   0.98103, 2,    7816.33, -120.5,   0.98103, 3,    7816.33,  119.5,   0.98103
"SCN_CN05_9198_CEI027", 13.8, 1,    7815.68,   -0.5,   0.98095, 2,    7815.68, -120.5,   0.98095, 3,    7815.68,  119.5,   0.98095
"SCN_CN05_9199_CEI027", 13.8, 1,    7815.67,   -0.5,   0.98095, 2,    7815.67, -120.5,   0.98095, 3,    7815.67,  119.5,   0.98095
"SCN_CN05_9197_CEI027", 13.8, 1,    7815.69,   -0.5,   0.98095, 2,    7815.69, -120.5,   0.98095, 3,    7815.69,  119.5,   0.98095
"SCN_CN05_9196_CEI027", 13.8, 1,     7815.7,   -0.5,   0.98096, 2,     7815.7, -120.5,   0.98096, 3,     7815.7,  119.5,   0.98096
"SCN_CN05_9195_CEI027", 13.8, 1,    7815.71,   -0.5,   0.98096, 2,    7815.71, -120.5,   0.98096, 3,    7815.71,  119.5,   0.98096
"SCN_CN05_9074_CEIRJ001_ATV", 13.8, 1,    7815.25,   -0.5,    0.9809, 2,    7815.25, -120.5,    0.9809, 3,    7815.25,  119.5,    0.9809
"SCN_CN05_9305_CEI027", 13.8, 1,    7815.16,   -0.5,   0.98089, 2,    7815.16, -120.5,   0.98089, 3,    7815.16,  119.5,   0.98089
"SCN_CN05_9306_CEI027", 13.8, 1,       7815,   -0.5,   0.98087, 2,       7815, -120.5,   0.98087, 3,       7815,  119.5,   0.98087
"SCN_CN05_9308_CEI027", 13.8, 1,    7814.93,   -0.5,   0.98086, 2,    7814.93, -120.5,   0.98086, 3,    7814.93,  119.5,   0.98086
"SCN_CN05_9430_CEI027", 13.8, 1,    7814.85,   -0.5,   0.98085, 2,    7814.85, -120.5,   0.98085, 3,    7814.85,  119.5,   0.98085
"SCN_CN05_CEI_FL_MT_1304", 13.8, 1,    7816.47,   -0.5,   0.98105, 2,    7816.47, -120.5,   0.98105, 3,    7816.47,  119.5,   0.98105
"SCN_CN05_CEI_FL_MT_1305", 13.8, 1,    7815.34,   -0.5,   0.98091, 2,    7815.34, -120.5,   0.98091, 3,    7815.34,  119.5,   0.98091
"SCN_CN05_9276_CEI027", 13.8, 1,    7815.43,   -0.5,   0.98092, 2,    7815.43, -120.5,   0.98092, 3,    7815.43,  119.5,   0.98092
"SCN_CN05_9282_CEI027", 13.8, 1,    7815.31,   -0.5,   0.98091, 2,    7815.31, -120.5,   0.98091, 3,    7815.31,  119.5,   0.98091
"SCN_CN05_9283_CEI027", 13.8, 1,     7815.3,   -0.5,   0.98091, 2,     7815.3, -120.5,   0.98091, 3,     7815.3,  119.5,   0.98091
"SCN_CN05_9281_CEI027", 13.8, 1,    7815.31,   -0.5,   0.98091, 2,    7815.31, -120.5,   0.98091, 3,    7815.31,  119.5,   0.98091
"SCN_CN05_9280_CEI027", 13.8, 1,    7815.32,   -0.5,   0.98091, 2,    7815.32, -120.5,   0.98091, 3,    7815.32,  119.5,   0.98091
"SCN_CN05_9279_CEI027", 13.8, 1,    7815.32,   -0.5,   0.98091, 2,    7815.32, -120.5,   0.98091, 3,    7815.32,  119.5,   0.98091
"SCN_CN05_9278_CEI027", 13.8, 1,    7815.33,   -0.5,   0.98091, 2,    7815.33, -120.5,   0.98091, 3,    7815.33,  119.5,   0.98091
"SCN_CN05_9275_CEI027", 13.8, 1,    7815.34,   -0.5,   0.98091, 2,    7815.34, -120.5,   0.98091, 3,    7815.34,  119.5,   0.98091
"SCN_CN05_9274_CEI027", 13.8, 1,    7815.34,   -0.5,   0.98091, 2,    7815.34, -120.5,   0.98091, 3,    7815.34,  119.5,   0.98091
"SCN_CN05_9273_CEI027", 13.8, 1,    7815.34,   -0.5,   0.98091, 2,    7815.34, -120.5,   0.98091, 3,    7815.34,  119.5,   0.98091
"SCN_CN05_9272_CEI027", 13.8, 1,    7815.34,   -0.5,   0.98091, 2,    7815.34, -120.5,   0.98091, 3,    7815.34,  119.5,   0.98091
"SCN_CN05_9271_CEI027", 13.8, 1,    7815.34,   -0.5,   0.98091, 2,    7815.34, -120.5,   0.98091, 3,    7815.34,  119.5,   0.98091
"SCN_CN05_9270_CEI027", 13.8, 1,    7815.34,   -0.5,   0.98091, 2,    7815.34, -120.5,   0.98091, 3,    7815.34,  119.5,   0.98091
"SCN_CN05_9313_CEI027", 13.8, 1,    7815.02,   -0.5,   0.98087, 2,    7815.02, -120.5,   0.98087, 3,    7815.02,  119.5,   0.98087
"SCN_CN05_9314_CEI027", 13.8, 1,       7815,   -0.5,   0.98087, 2,       7815, -120.5,   0.98087, 3,       7815,  119.5,   0.98087
"SCN_CN05_9312_CEI027", 13.8, 1,    7815.03,   -0.5,   0.98087, 2,    7815.03, -120.5,   0.98087, 3,    7815.03,  119.5,   0.98087
"SCN_CN05_9311_CEI027", 13.8, 1,    7815.04,   -0.5,   0.98087, 2,    7815.04, -120.5,   0.98087, 3,    7815.04,  119.5,   0.98087
"SCN_CN05_9310_CEI027", 13.8, 1,    7815.05,   -0.5,   0.98087, 2,    7815.05, -120.5,   0.98087, 3,    7815.05,  119.5,   0.98087
"SCN_CN05_9309_CEI027", 13.8, 1,    7815.06,   -0.5,   0.98088, 2,    7815.06, -120.5,   0.98088, 3,    7815.06,  119.5,   0.98088
"SCN_CN05_9310_CEI027_S", 13.8, 1,    7815.05,   -0.5,   0.98087, 2,    7815.05, -120.5,   0.98087, 3,    7815.05,  119.5,   0.98087
"SCN_CN05_9303_CEI027", 13.8, 1,    7815.06,   -0.5,   0.98088, 2,    7815.06, -120.5,   0.98088, 3,    7815.06,  119.5,   0.98088
"SCN_CN05_9304_CEI027", 13.8, 1,    7815.06,   -0.5,   0.98088, 2,    7815.06, -120.5,   0.98088, 3,    7815.06,  119.5,   0.98088
"SCN_CN05_9302_CEI027", 13.8, 1,    7815.05,   -0.5,   0.98087, 2,    7815.05, -120.5,   0.98087, 3,    7815.05,  119.5,   0.98087
"SCN_CN05_9301_CEI027", 13.8, 1,    7815.04,   -0.5,   0.98087, 2,    7815.04, -120.5,   0.98087, 3,    7815.04,  119.5,   0.98087
"SCN_CN05_9300_CEI027", 13.8, 1,    7815.04,   -0.5,   0.98087, 2,    7815.04, -120.5,   0.98087, 3,    7815.04,  119.5,   0.98087
"SCN_CN05_9299_CEI027", 13.8, 1,    7815.03,   -0.5,   0.98087, 2,    7815.03, -120.5,   0.98087, 3,    7815.03,  119.5,   0.98087
"SCN_CN05_9424_CEI027", 13.8, 1,    7814.74,   -0.5,   0.98084, 2,    7814.74, -120.5,   0.98084, 3,    7814.74,  119.5,   0.98084
"SCN_CN05_9425_CEI027", 13.8, 1,    7814.75,   -0.5,   0.98084, 2,    7814.75, -120.5,   0.98084, 3,    7814.75,  119.5,   0.98084
"SCN_CN05_9426_CEI027", 13.8, 1,    7814.76,   -0.5,   0.98084, 2,    7814.76, -120.5,   0.98084, 3,    7814.76,  119.5,   0.98084
"SCN_CN05_9427_CEI027", 13.8, 1,    7814.76,   -0.5,   0.98084, 2,    7814.76, -120.5,   0.98084, 3,    7814.76,  119.5,   0.98084
"SCN_CN05_9428_CEI027", 13.8, 1,    7814.77,   -0.5,   0.98084, 2,    7814.77, -120.5,   0.98084, 3,    7814.77,  119.5,   0.98084
"SCN_CN05_9428_CEI027_S", 13.8, 1,    7814.77,   -0.5,   0.98084, 2,    7814.77, -120.5,   0.98084, 3,    7814.77,  119.5,   0.98084
"SCN_CN05_9429_CEI027", 13.8, 1,    7814.78,   -0.5,   0.98084, 2,    7814.78, -120.5,   0.98084, 3,    7814.78,  119.5,   0.98084
"SCN_CN05_9433_CEI027", 13.8, 1,    7814.77,   -0.5,   0.98084, 2,    7814.77, -120.5,   0.98084, 3,    7814.77,  119.5,   0.98084
"SCN_CN05_9434_CEI027", 13.8, 1,    7814.76,   -0.5,   0.98084, 2,    7814.76, -120.5,   0.98084, 3,    7814.76,  119.5,   0.98084
"SCN_CN05_9435_CEI027", 13.8, 1,    7814.75,   -0.5,   0.98084, 2,    7814.75, -120.5,   0.98084, 3,    7814.75,  119.5,   0.98084
"SCN_CN05_9436_CEI027", 13.8, 1,    7814.74,   -0.5,   0.98084, 2,    7814.74, -120.5,   0.98084, 3,    7814.74,  119.5,   0.98084
"SCN_CN05_9437_CEI027", 13.8, 1,    7814.73,   -0.5,   0.98083, 2,    7814.73, -120.5,   0.98083, 3,    7814.73,  119.5,   0.98083
"SCN_CN05_9438_CEI027", 13.8, 1,    7814.72,   -0.5,   0.98083, 2,    7814.72, -120.5,   0.98083, 3,    7814.72,  119.5,   0.98083
"SCN_CN05_9477_CEI027", 13.8, 1,    7814.64,   -0.5,   0.98082, 2,    7814.64, -120.5,   0.98082, 3,    7814.64,  119.5,   0.98082
"SCN_CN05_9478_CEI027", 13.8, 1,    7814.61,   -0.5,   0.98082, 2,    7814.61, -120.5,   0.98082, 3,    7814.61,  119.5,   0.98082
"SCN_CN05_9432_CEI027", 13.8, 1,    7814.67,   -0.5,   0.98083, 2,    7814.67, -120.5,   0.98083, 3,    7814.67,  119.5,   0.98083
"SCN_CN05_9431_CEI027", 13.8, 1,    7814.73,   -0.5,   0.98083, 2,    7814.73, -120.5,   0.98083, 3,    7814.73,  119.5,   0.98083
"SCN_CN05_CEI_FL_MT_1306", 13.8, 1,    7814.78,   -0.5,   0.98084, 2,    7814.78, -120.5,   0.98084, 3,    7814.78,  119.5,   0.98084
"SCN_CN05_CEI_FL_MT_1307", 13.8, 1,    7815.07,   -0.5,   0.98088, 2,    7815.07, -120.5,   0.98088, 3,    7815.07,  119.5,   0.98088
"SCN_CN05_9433_CEI026", 13.8, 1,    7828.71,   -0.5,   0.98259, 2,    7828.71, -120.5,   0.98259, 3,    7828.71,  119.5,   0.98259
"SCN_CN05_9483_CEI026", 13.8, 1,    7828.09,   -0.5,   0.98251, 2,    7828.09, -120.5,   0.98251, 3,    7828.09,  119.5,   0.98251
"SCN_CN05_9482_CEI026", 13.8, 1,    7827.46,   -0.5,   0.98243, 2,    7827.46, -120.5,   0.98243, 3,    7827.46,  119.5,   0.98243
"SCN_CN05_9431_CEI026", 13.8, 1,    7827.45,   -0.5,   0.98243, 2,    7827.45, -120.5,   0.98243, 3,    7827.45,  119.5,   0.98243
"SCN_CN05_9430_CEI026", 13.8, 1,    7827.44,   -0.5,   0.98243, 2,    7827.44, -120.5,   0.98243, 3,    7827.44,  119.5,   0.98243
"SCN_CN05_9429_CEI026", 13.8, 1,    7827.44,   -0.5,   0.98243, 2,    7827.44, -120.5,   0.98243, 3,    7827.44,  119.5,   0.98243
"SCN_CN05_9427_CEI026", 13.8, 1,    7827.43,   -0.5,   0.98243, 2,    7827.43, -120.5,   0.98243, 3,    7827.43,  119.5,   0.98243
"SCN_CN05_9425_CEI026", 13.8, 1,    7827.42,   -0.5,   0.98243, 2,    7827.42, -120.5,   0.98243, 3,    7827.42,  119.5,   0.98243
"SCN_CN05_9424_CEI026", 13.8, 1,    7827.42,   -0.5,   0.98243, 2,    7827.42, -120.5,   0.98243, 3,    7827.42,  119.5,   0.98243
"SCN_CN05_CEI_FL_MT_419187", 13.8, 1,    7815.72,   -0.5,   0.98096, 2,    7815.72, -120.5,   0.98096, 3,    7815.72,  119.5,   0.98096
"SCN_CN05_CEI_FL_MT_1290", 13.8, 1,    7820.86,   -0.5,    0.9816, 2,    7820.86, -120.5,    0.9816, 3,    7820.86,  119.5,    0.9816
"SCN_CN05_9297_CEI026", 13.8, 1,    7820.84,   -0.5,    0.9816, 2,    7820.84, -120.5,    0.9816, 3,    7820.84,  119.5,    0.9816
"SCN_CN05_9298_CEI026", 13.8, 1,    7820.83,   -0.5,    0.9816, 2,    7820.83, -120.5,    0.9816, 3,    7820.83,  119.5,    0.9816
"SCN_CN05_9299_CEI026", 13.8, 1,    7820.82,   -0.5,    0.9816, 2,    7820.82, -120.5,    0.9816, 3,    7820.82,  119.5,    0.9816
"SCN_CN05_9300_CEI026", 13.8, 1,    7820.81,   -0.5,    0.9816, 2,    7820.81, -120.5,    0.9816, 3,    7820.81,  119.5,    0.9816
"SCN_CN05_9291_CEI026", 13.8, 1,    7820.84,   -0.5,    0.9816, 2,    7820.84, -120.5,    0.9816, 3,    7820.84,  119.5,    0.9816
"SCN_CN05_9290_CEI026", 13.8, 1,    7820.83,   -0.5,    0.9816, 2,    7820.83, -120.5,    0.9816, 3,    7820.83,  119.5,    0.9816
"SCN_CN05_9289_CEI026", 13.8, 1,    7820.82,   -0.5,    0.9816, 2,    7820.82, -120.5,    0.9816, 3,    7820.82,  119.5,    0.9816
"SCN_CN05_9288_CEI026", 13.8, 1,    7820.81,   -0.5,    0.9816, 2,    7820.81, -120.5,    0.9816, 3,    7820.81,  119.5,    0.9816
"SCN_CN05_9296_CEI026", 13.8, 1,    7820.88,   -0.5,   0.98161, 2,    7820.88, -120.5,   0.98161, 3,    7820.88,  119.5,   0.98161
"SCN_CN05_9320_CEI026", 13.8, 1,     7820.9,   -0.5,   0.98161, 2,     7820.9, -120.5,   0.98161, 3,     7820.9,  119.5,   0.98161
"SCN_CN05_CEI_FL_MT_1343", 13.8, 1,    7820.92,   -0.5,   0.98161, 2,    7820.92, -120.5,   0.98161, 3,    7820.92,  119.5,   0.98161
"SCN_CN05_9321_CEI026", 13.8, 1,    7820.96,   -0.5,   0.98162, 2,    7820.96, -120.5,   0.98162, 3,    7820.96,  119.5,   0.98162
"SCN_CN05_9322_CEI026", 13.8, 1,    7821.01,   -0.5,   0.98162, 2,    7821.01, -120.5,   0.98162, 3,    7821.01,  119.5,   0.98162
"SCN_CN05_9342_CEI026", 13.8, 1,    7821.05,   -0.5,   0.98163, 2,    7821.05, -120.5,   0.98163, 3,    7821.05,  119.5,   0.98163
"SCN_CN05_9319_CEI026", 13.8, 1,    7820.91,   -0.5,   0.98161, 2,    7820.91, -120.5,   0.98161, 3,    7820.91,  119.5,   0.98161
"SCN_CN05_9318_CEI026", 13.8, 1,     7820.9,   -0.5,   0.98161, 2,     7820.9, -120.5,   0.98161, 3,     7820.9,  119.5,   0.98161
"SCN_CN05_9317_CEI026", 13.8, 1,    7820.89,   -0.5,   0.98161, 2,    7820.89, -120.5,   0.98161, 3,    7820.89,  119.5,   0.98161
"SCN_CN05_9323_CEI026_S", 13.8, 1,    7820.91,   -0.5,   0.98161, 2,    7820.91, -120.5,   0.98161, 3,    7820.91,  119.5,   0.98161
"SCN_CN05_9323_CEI026", 13.8, 1,    7820.91,   -0.5,   0.98161, 2,    7820.91, -120.5,   0.98161, 3,    7820.91,  119.5,   0.98161
"SCN_CN05_9324_CEI026", 13.8, 1,     7820.9,   -0.5,   0.98161, 2,     7820.9, -120.5,   0.98161, 3,     7820.9,  119.5,   0.98161
"SCN_CN05_9325_CEI026", 13.8, 1,    7820.89,   -0.5,   0.98161, 2,    7820.89, -120.5,   0.98161, 3,    7820.89,  119.5,   0.98161
"SCN_CN05_9340_CEI026", 13.8, 1,    7821.07,   -0.5,   0.98163, 2,    7821.07, -120.5,   0.98163, 3,    7821.07,  119.5,   0.98163
"SCN_CN05_9339_CEI026", 13.8, 1,    7821.06,   -0.5,   0.98163, 2,    7821.06, -120.5,   0.98163, 3,    7821.06,  119.5,   0.98163
"SCN_CN05_9341_CEI026", 13.8, 1,    7821.08,   -0.5,   0.98163, 2,    7821.08, -120.5,   0.98163, 3,    7821.08,  119.5,   0.98163
"SCN_CN05_CEI_FL_MT_1344", 13.8, 1,    7821.09,   -0.5,   0.98163, 2,    7821.09, -120.5,   0.98163, 3,    7821.09,  119.5,   0.98163
"SCN_CN05_9341_CEI026_S", 13.8, 1,    7821.08,   -0.5,   0.98163, 2,    7821.08, -120.5,   0.98163, 3,    7821.08,  119.5,   0.98163
"SCN_CN05_9344_CEI026_S", 13.8, 1,    7821.08,   -0.5,   0.98163, 2,    7821.08, -120.5,   0.98163, 3,    7821.08,  119.5,   0.98163
"SCN_CN05_9344_CEI026", 13.8, 1,    7821.08,   -0.5,   0.98163, 2,    7821.08, -120.5,   0.98163, 3,    7821.08,  119.5,   0.98163
"SCN_CN05_9345_CEI026", 13.8, 1,    7821.07,   -0.5,   0.98163, 2,    7821.07, -120.5,   0.98163, 3,    7821.07,  119.5,   0.98163
"SCN_CN05_9346_CEI026", 13.8, 1,    7821.06,   -0.5,   0.98163, 2,    7821.06, -120.5,   0.98163, 3,    7821.06,  119.5,   0.98163
"SCN_CN05_9343_CEI026", 13.8, 1,    7821.16,   -0.5,   0.98164, 2,    7821.16, -120.5,   0.98164, 3,    7821.16,  119.5,   0.98164
"SCN_CN05_9365_CEI026", 13.8, 1,    7821.23,   -0.5,   0.98165, 2,    7821.23, -120.5,   0.98165, 3,    7821.23,  119.5,   0.98165
"SCN_CN05_CEI_FL_MT_1345", 13.8, 1,    7821.29,   -0.5,   0.98166, 2,    7821.29, -120.5,   0.98166, 3,    7821.29,  119.5,   0.98166
"SCN_CN05_9366_CEI026", 13.8, 1,    7821.38,   -0.5,   0.98167, 2,    7821.38, -120.5,   0.98167, 3,    7821.38,  119.5,   0.98167
"SCN_CN05_9367_CEI026", 13.8, 1,    7821.47,   -0.5,   0.98168, 2,    7821.47, -120.5,   0.98168, 3,    7821.47,  119.5,   0.98168
"SCN_CN05_9392_CEI026", 13.8, 1,    7821.55,   -0.5,   0.98169, 2,    7821.55, -120.5,   0.98169, 3,    7821.55,  119.5,   0.98169
"SCN_CN05_CEI_FL_MT_1346", 13.8, 1,    7821.64,   -0.5,    0.9817, 2,    7821.64, -120.5,    0.9817, 3,    7821.64,  119.5,    0.9817
"SCN_CN05_9362_CEI026", 13.8, 1,    7821.26,   -0.5,   0.98165, 2,    7821.26, -120.5,   0.98165, 3,    7821.26,  119.5,   0.98165
...